/batch
/config,noeldb,1     ! force off writing results to database
*get,_wallstrt,active,,time,wall
! ANSYS input file written by Workbench version 2023 R1
! File used for geometry attach: C:\Users\simon\Desktop\Test Ansys - Copia\test_files\dp0\Geom-5\DM\Geom-5.agdb
/title,test--Harmonic Response (L5)
! ****** Begin Custom Load Command Snippet ******
/COM, ACT Extensions:
/COM,     PiezoAndMEMS, 2020.1
/COM,     0cd64874-101b-4182-aef8-530cf9982bb6, wbex
/COM,/COM,     LSDYNA, 2023.1
/COM,     5f463412-bd3e-484b-87e7-cbc0a665e474, wbex
/COM,/COM,     ANSYSMotion, 2023.1
/COM,     20180725-3f81-49eb-9f31-41364844c769, wbex
/COM,
! ****** End   Custom Load Command Snippet ******
*DIM,_wb_ProjectScratch_dir,string,248
_wb_ProjectScratch_dir(1) = 'C:\Users\simon\Desktop\Test Ansys - Copia\_ProjectScratch\Scr6C67\'
*DIM,_wb_SolverFiles_dir,string,248
_wb_SolverFiles_dir(1) = 'C:\Users\simon\Desktop\Test Ansys - Copia\test_files\dp0\SYS-7\MECH\'
*DIM,_wb_userfiles_dir,string,248
_wb_userfiles_dir(1) = 'C:\Users\simon\Desktop\Test Ansys - Copia\test_files\user_files\'
/com,--- Data in consistent MKS units. See Solving Units in the help system for more information.
/units,MKS
/nopr
/wb,file,start              !  signify a WB generated input file
/prep7
! Turn off shape checking because checks already performed inside WB mesher.
! See help system for more information.
SHPP,OFF,,NOWARN
/nolist
etcon,set             ! allow ANSYS to choose best KEYOP's for 180x elements, resets any applicable keyopt to MAPDL defaults
/com,*********** Nodes for the whole assembly ***********
nblock,3,,1027
(1i9,3e20.9e3)
        1     4.000000000E-03     1.040000000E-02     0.000000000E+00
        2     4.000000000E-03     1.140000000E-02     0.000000000E+00
        3     4.000000000E-03     1.090000000E-02     0.000000000E+00
        4    -0.000000000E+00     1.140000000E-02     0.000000000E+00
        5     3.428571429E-03     1.140000000E-02     0.000000000E+00
        6     2.857142857E-03     1.140000000E-02     0.000000000E+00
        7     2.285714286E-03     1.140000000E-02     0.000000000E+00
        8     1.714285714E-03     1.140000000E-02     0.000000000E+00
        9     1.142857143E-03     1.140000000E-02     0.000000000E+00
       10     5.714285714E-04     1.140000000E-02     0.000000000E+00
       11    -0.000000000E+00     1.040000000E-02     0.000000000E+00
       12    -2.567048098E-20     1.090000000E-02     0.000000000E+00
       13     5.714285714E-04     1.040000000E-02     0.000000000E+00
       14     1.142857143E-03     1.040000000E-02     0.000000000E+00
       15     1.714285714E-03     1.040000000E-02     0.000000000E+00
       16     2.285714286E-03     1.040000000E-02     0.000000000E+00
       17     2.857142857E-03     1.040000000E-02     0.000000000E+00
       18     3.428571429E-03     1.040000000E-02     0.000000000E+00
       19     1.144345565E-03     1.089997806E-02     0.000000000E+00
       20     1.715183691E-03     1.090000389E-02     0.000000000E+00
! ... 915 like lines cut
/wb,elem,start            !  set before creation of elements
/com,*********** Elements for Body 1 "Surface Body" ***********
et,1,183
keyo,1,3,1
eblock,19,solid,,14
(19i9)
        1        1        1        1        0        0        0        0        8        0        1       24       13       14       19       47       46       49       58
        1        1        1        1        0        0        0        0        8        0        2       19        9       10       24       41       40       42       58
        1        1        1        1        0        0        0        0        8        0        3       14       15       20       19       48       51       57       49
        1        1        1        1        0        0        0        0        8        0        4       20        8        9       19       39       38       41       57
        1        1        1        1        0        0        0        0        8        0        5       15       16       21       20       50       53       59       51
        1        1        1        1        0        0        0        0        8        0        6       21        7        8       20       37       36       39       59
        1        1        1        1        0        0        0        0        8        0        7       16       17       22       21       52       55       60       53
        1        1        1        1        0        0        0        0        8        0        8       22        6        7       21       35       34       37       60
        1        1        1        1        0        0        0        0        8        0        9       17       18       23       22       54       56       61       55
        1        1        1        1        0        0        0        0        8        0       10       23        5        6       22       33       32       35       61
        1        1        1        1        0        0        0        0        8        0       11       23        3        2        5       29       27       28       33
        1        1        1        1        0        0        0        0        8        0       12       18        1        3       23       26       25       29       56
        1        1        1        1        0        0        0        0        8        0       13       24       12       11       13       45       43       44       47
        1        1        1        1        0        0        0        0        8        0       14       10        4       12       24       30       31       45       42
-1
!Material Id = {9E0644DD-29A7-49C5-B1D3-94A3934A3A1D}
/com,*********** Elements for Body 2 "Surface Body" ***********
et,2,183
keyo,2,3,1
eblock,19,solid,,119
(19i9)
        2        2        2        2        0        0        0        0        8        0      134      524      527      522      525      731      725      724      730
        2        2        2        2        0        0        0        0        8        0      135      525      526      523      524      733      728      727      730
        2        2        2        2        0        0        0        0        8        0      136      527      528      521      522      737      722      721      725
        2        2        2        2        0        0        0        0        8        0      137      528      530      519      521      739      715      714      722
        2        2        2        2        0        0        0        0        8        0      138      530      531      518      519      743      712      711      715
        2        2        2        2        0        0        0        0        8        0      139      531      532      516      518      745      706      705      712
        2        2        2        2        0        0        0        0        8        0      140      532      535      517      516      747      708      704      706
        2        2        2        2        0        0        0        0        8        0      141      535      539      536      517      754      756      709      708
        2        2        2        2        0        0        0        0        8        0      142      516      556      610      518      707      809      713      705
        2        2        2        2        0        0        0        0        8        0      143      517      607      556      516      710      808      707      704
        2        2        2        2        0        0        0        0        8        0      144      536      557      607      517      758      812      710      709
        2        2        2        2        0        0        0        0        8        0      145      518      610      555      519      713      806      716      711
        2        2        2        2        0        0        0        0        8        0      146      519      555      602      521      716      805      723      714
        2        2        2        2        0        0        0        0        8        0      147      526      529      520      523      735      718      717      728
        2        2        2        2        0        0        0        0        8        0      148      529      534      533      520      741      749      719      718
        2        2        2        2        0        0        0        0        8        0      149      534      538      537      533      752      759      750      749
        2        2        2        2        0        0        0        0        8        0      150      520      548      609      523      720      787      729      717
        2        2        2        2        0        0        0        0        8        0      151      533      550      548      520      751      785      720      719
        2        2        2        2        0        0        0        0        8        0      152      521      602      554      522      723      802      726      721
        2        2        2        2        0        0        0        0        8        0      153      522      554      606      525      726      803      734      724
! ... 100 like lines cut
!Material Id = {E942CBC6-2615-4BEC-928A-ED4DAAD0DB62}
/com,*********** Elements for Body 3 "Surface Body" ***********
et,3,183
keyo,3,3,1
eblock,19,solid,,14
(19i9)
        3        3        3        3        0        0        0        0        8        0      253      897      885      886      892      919      918      921      931
        3        3        3        3        0        0        0        0        8        0      254      892      877      876      897      905      902      903      931
        3        3        3        3        0        0        0        0        8        0      255      886      887      893      892      920      923      930      921
        3        3        3        3        0        0        0        0        8        0      256      893      878      877      892      907      904      905      930
        3        3        3        3        0        0        0        0        8        0      257      887      888      894      893      922      925      932      923
        3        3        3        3        0        0        0        0        8        0      258      894      879      878      893      909      906      907      932
        3        3        3        3        0        0        0        0        8        0      259      888      889      895      894      924      927      933      925
        3        3        3        3        0        0        0        0        8        0      260      895      880      879      894      911      908      909      933
        3        3        3        3        0        0        0        0        8        0      261      889      890      896      895      926      928      934      927
        3        3        3        3        0        0        0        0        8        0      262      896      881      880      895      912      910      911      934
        3        3        3        3        0        0        0        0        8        0      263      896      891      875      881      929      901      900      912
        3        3        3        3        0        0        0        0        8        0      264      890      884      891      896      916      917      929      928
        3        3        3        3        0        0        0        0        8        0      265      897      883      882      885      915      913      914      919
        3        3        3        3        0        0        0        0        8        0      266      876      874      883      897      898      899      915      903
-1
!Material Id = {658E9E3B-C023-4E0D-883A-CBCBD9EA3BF3}
/com,*********** Elements for Body 4 "Surface Body" ***********
et,4,183
keyo,4,3,1
eblock,19,solid,,119
(19i9)
        4        4        4        4        0        0        0        0        8        0       15      118      121      116      119      325      319      318      324
        4        4        4        4        0        0        0        0        8        0       16      119      120      117      118      327      322      321      324
        4        4        4        4        0        0        0        0        8        0       17      121      122      115      116      331      316      315      319
        4        4        4        4        0        0        0        0        8        0       18      122      124      113      115      333      309      308      316
        4        4        4        4        0        0        0        0        8        0       19      124      125      112      113      337      306      305      309
        4        4        4        4        0        0        0        0        8        0       20      125      126      110      112      339      300      299      306
        4        4        4        4        0        0        0        0        8        0       21      126      129      111      110      341      302      298      300
        4        4        4        4        0        0        0        0        8        0       22      129      133      130      111      348      350      303      302
        4        4        4        4        0        0        0        0        8        0       23      110      149      197      112      301      400      307      299
        4        4        4        4        0        0        0        0        8        0       24      111      195      149      110      304      399      301      298
        4        4        4        4        0        0        0        0        8        0       25      130      150      195      111      352      403      304      303
        4        4        4        4        0        0        0        0        8        0       26      112      197      148      113      307      396      310      305
        4        4        4        4        0        0        0        0        8        0       27      113      148      204      115      310      397      317      308
        4        4        4        4        0        0        0        0        8        0       28      120      123      114      117      329      312      311      322
        4        4        4        4        0        0        0        0        8        0       29      123      128      127      114      335      343      313      312
        4        4        4        4        0        0        0        0        8        0       30      128      132      131      127      346      353      344      343
        4        4        4        4        0        0        0        0        8        0       31      114      142      141      117      314      378      323      311
        4        4        4        4        0        0        0        0        8        0       32      127      144      142      114      345      380      314      313
        4        4        4        4        0        0        0        0        8        0       33      115      204      147      116      317      394      320      315
        4        4        4        4        0        0        0        0        8        0       34      116      147      202      119      320      393      328      318
! ... 100 like lines cut
!Material Id = {6CA86BA3-3BCC-496B-B1D9-80C232639EF8}
/wb,elem,end               !  done creating elements
/com,*********** Send User Defined Coordinate System(s) ***********
csys,0
toffst,273.15,  ! Temperature offset from absolute zero
/com,*********** Set Reference Temperature ***********
tref,22.
/wb,mat,start              !  starting to send materials
/com,*********** Send Materials ***********
MP,DENS,1,7780,	! kg m^-3

TB,ELASTIC,1,,,AELS

TBDATA,1,114000000000,75700000000,72400000000,0,0,0
TBDATA,7,114000000000,72400000000,0,0,0,111000000000
TBDATA,13,0,0,0,26300000000,0,0
TBDATA,19,26300000000,0,19200000000

TB,DPER,1,,,0

TBDATA,1,2120,2120,1980,0,0,0
MP,UVID,1,9bc49b53-da38-4945-b103-512bf6ee2102

MP,DENS,2,4507,	! kg m^-3
MP,EX,2,168000000000,	! Pa
MP,NUXY,2,0.32,
MP,UVID,2,1278a9eb-e217-4719-9826-70dfb7de797f

MP,DENS,3,7780,	! kg m^-3

TB,ELASTIC,3,,,AELS

TBDATA,1,114000000000,75700000000,72400000000,0,0,0
TBDATA,7,114000000000,72400000000,0,0,0,111000000000
TBDATA,13,0,0,0,26300000000,0,0
TBDATA,19,26300000000,0,19200000000

TB,DPER,3,,,0

TBDATA,1,2120,2120,1980,0,0,0
MP,UVID,3,9bc49b53-da38-4945-b103-512bf6ee2102

MP,DENS,4,4507,	! kg m^-3
MP,EX,4,168000000000,	! Pa
MP,NUXY,4,0.32,
MP,UVID,4,1278a9eb-e217-4719-9826-70dfb7de797f

/wb,mat,end                !  done sending materials
/com,*********** Send Sheet Properties ***********
!************************* Model Summary ********************
!Surface Body,	PZ 21,	matid,	1
!Surface Body,	Titanio,	matid,	2
!Surface Body,	PZ 21,	matid,	3
!Surface Body,	Titanio,	matid,	4
!************************* End Model Summary ********************
! get the diagonal of the bounding box. Needed later for other things
*get,_xmin,node,,mnloc,x
*get,_ymin,node,,mnloc,y
*get,_zmin,node,,mnloc,z
*get,_xmax,node,,mxloc,x
*get,_ymax,node,,mxloc,y
*get,_zmax,node,,mxloc,z
_ASMDIAG=(_xmax-_xmin)*(_xmax-_xmin)+(_ymax-_ymin)*(_ymax-_ymin)+(_zmax-_zmin)*(_zmax-_zmin)
_ASMDIAG=SQRT(_ASMDIAG)
/wb,contact,start          !  starting to send contact
/com,*********** Create Contact "Contact Region" ***********
/com,            Real Constant Set For Above Contact Is 6 & 5 
*set,tid,6
*set,cid,5
r,tid
r,cid
et,tid,169
et,cid,172
eblock,10,,,7
(15i9)
      267        6        6        6        0        9       10       40
      268        6        6        6        0        8        9       38
      269        6        6        6        0        7        8       36
      270        6        6        6        0        6        7       34
      271        6        6        6        0        5        6       32
      272        6        6        6        0        2        5       28
      273        6        6        6        0       10        4       30
-1
eblock,10,,,7
(15i9)
      274        5        5        5        0        9       10       40
      275        5        5        5        0        8        9       38
      276        5        5        5        0        7        8       36
      277        5        5        5        0        6        7       34
      278        5        5        5        0        5        6       32
      279        5        5        5        0        2        5       28
      280        5        5        5        0       10        4       30
-1
eblock,10,,,7
(15i9)
      281        5        6        5        0      471      470      616
      282        5        6        5        0      472      471      618
      283        5        6        5        0      473      472      620
      284        5        6        5        0      474      473      622
      285        5        6        5        0      475      474      624
      286        5        6        5        0      469      475      614
      287        5        6        5        0      470      468      612
-1
eblock,10,,,7
(15i9)
      288        6        5        6        0      471      470      616
      289        6        5        6        0      472      471      618
      290        6        5        6        0      473      472      620
      291        6        5        6        0      474      473      622
      292        6        5        6        0      475      474      624
      293        6        5        6        0      469      475      614
      294        6        5        6        0      470      468      612
-1
keyo,cid,8,2               ! auto create asymmetric contact (from Program Controlled setting)
keyo,cid,10,0              ! adjust contact stiffness each NR iteration (from Program Controlled setting)
keyo,cid,12,5              ! bonded always
keyo,cid,18,1              ! small sliding turned on by application
keyo,cid,2,0               ! augmented Lagrange (from Program Controlled setting)
keyo,cid,4,0               ! on Gauss point (from Program Controlled setting)
keyo,cid,9,1               ! ignore initial gaps/penetration
keyo,cid,7,0               ! No Prediction
rmod,tid,3,10.      ! FKN
rmod,tid,5,0.       ! ICONT
rmod,tid,6,-5.29528094082065e-005       ! PINB
rmod,tid,10,0.      ! CNOF
rmod,tid,12,0.      ! FKT
rmod,tid,36,164     ! WB DSID
rmod,cid,3,10.      ! FKN
rmod,cid,5,0.       ! ICONT
rmod,cid,6,-5.29528094082065e-005       ! PINB
rmod,cid,10,0.      ! CNOF
rmod,cid,12,0.      ! FKT
rmod,cid,36,164     ! WB DSID
/com,*********** Create Contact "Contact Region 2" ***********
/com,            Real Constant Set For Above Contact Is 8 & 7 
*set,tid,8
*set,cid,7
r,tid
r,cid
et,tid,169
et,cid,172
eblock,10,,,7
(15i9)
      295        8        8        8        0       13       14       46
      296        8        8        8        0       14       15       48
      297        8        8        8        0       15       16       50
      298        8        8        8        0       16       17       52
      299        8        8        8        0       17       18       54
      300        8        8        8        0       18        1       26
      301        8        8        8        0       11       13       44
-1
eblock,10,,,7
(15i9)
      302        7        7        7        0       13       14       46
      303        7        7        7        0       14       15       48
      304        7        7        7        0       15       16       50
      305        7        7        7        0       16       17       52
      306        7        7        7        0       17       18       54
      307        7        7        7        0       18        1       26
      308        7        7        7        0       11       13       44
-1
eblock,10,,,7
(15i9)
      309        7        8        7        0      877      876      902
      310        7        8        7        0      878      877      904
      311        7        8        7        0      879      878      906
      312        7        8        7        0      880      879      908
      313        7        8        7        0      881      880      910
      314        7        8        7        0      875      881      900
      315        7        8        7        0      876      874      898
-1
eblock,10,,,7
(15i9)
      316        8        7        8        0      877      876      902
      317        8        7        8        0      878      877      904
      318        8        7        8        0      879      878      906
      319        8        7        8        0      880      879      908
      320        8        7        8        0      881      880      910
      321        8        7        8        0      875      881      900
      322        8        7        8        0      876      874      898
-1
keyo,cid,8,2               ! auto create asymmetric contact (from Program Controlled setting)
keyo,cid,10,0              ! adjust contact stiffness each NR iteration (from Program Controlled setting)
keyo,cid,12,5              ! bonded always
keyo,cid,18,1              ! small sliding turned on by application
keyo,cid,2,0               ! augmented Lagrange (from Program Controlled setting)
keyo,cid,4,0               ! on Gauss point (from Program Controlled setting)
keyo,cid,9,1               ! ignore initial gaps/penetration
keyo,cid,7,0               ! No Prediction
rmod,tid,3,10.      ! FKN
rmod,tid,5,0.       ! ICONT
rmod,tid,6,-5.29528094082065e-005       ! PINB
rmod,tid,10,0.      ! CNOF
rmod,tid,12,0.      ! FKT
rmod,tid,36,167     ! WB DSID
rmod,cid,3,10.      ! FKN
rmod,cid,5,0.       ! ICONT
rmod,cid,6,-5.29528094082065e-005       ! PINB
rmod,cid,10,0.      ! CNOF
rmod,cid,12,0.      ! FKT
rmod,cid,36,167     ! WB DSID
/com,*********** Create Contact "Contact Region 3" ***********
/com,            Real Constant Set For Above Contact Is 10 & 9 
*set,tid,10
*set,cid,9
r,tid
r,cid
et,tid,169
et,cid,172
eblock,10,,,7
(15i9)
      323       10       10       10        0      885      886      918
      324       10       10       10        0      886      887      920
      325       10       10       10        0      887      888      922
      326       10       10       10        0      888      889      924
      327       10       10       10        0      889      890      926
      328       10       10       10        0      890      884      916
      329       10       10       10        0      882      885      914
-1
eblock,10,,,7
(15i9)
      330        9        9        9        0      885      886      918
      331        9        9        9        0      886      887      920
      332        9        9        9        0      887      888      922
      333        9        9        9        0      888      889      924
      334        9        9        9        0      889      890      926
      335        9        9        9        0      890      884      916
      336        9        9        9        0      882      885      914
-1
eblock,10,,,7
(15i9)
      337        9       10        9        0       64       62      206
      338        9       10        9        0       65       64      210
      339        9       10        9        0       66       65      212
      340        9       10        9        0       67       66      214
      341        9       10        9        0       68       67      216
      342        9       10        9        0       69       68      218
      343        9       10        9        0       63       69      208
-1
eblock,10,,,7
(15i9)
      344       10        9       10        0       64       62      206
      345       10        9       10        0       65       64      210
      346       10        9       10        0       66       65      212
      347       10        9       10        0       67       66      214
      348       10        9       10        0       68       67      216
      349       10        9       10        0       69       68      218
      350       10        9       10        0       63       69      208
-1
keyo,cid,8,2               ! auto create asymmetric contact (from Program Controlled setting)
keyo,cid,10,0              ! adjust contact stiffness each NR iteration (from Program Controlled setting)
keyo,cid,12,5              ! bonded always
keyo,cid,18,1              ! small sliding turned on by application
keyo,cid,2,0               ! augmented Lagrange (from Program Controlled setting)
keyo,cid,4,0               ! on Gauss point (from Program Controlled setting)
keyo,cid,9,1               ! ignore initial gaps/penetration
keyo,cid,7,0               ! No Prediction
rmod,tid,3,10.      ! FKN
rmod,tid,5,0.       ! ICONT
rmod,tid,6,-5.29528094082065e-005       ! PINB
rmod,tid,10,0.      ! CNOF
rmod,tid,12,0.      ! FKT
rmod,tid,36,170     ! WB DSID
rmod,cid,3,10.      ! FKN
rmod,cid,5,0.       ! ICONT
rmod,cid,6,-5.29528094082065e-005       ! PINB
rmod,cid,10,0.      ! CNOF
rmod,cid,12,0.      ! FKT
rmod,cid,36,170     ! WB DSID
nsel,all
esel,all
/wb,contact,end            !  done creating contacts
/com,*********** Send Named Selection as Node Component ***********
CMBLOCK,ESTREMO_TOP,NODE,       15
(8i10)
       476       493       494       495       496       497       498       499
       628       660       662       664       666       668       670
/golist
/wb,load,start             !  starting to send loads
/gst,on,on
fini
*get,_numnode,node,0,count
*get,_numelem,elem,0,count
*get, _MAXELEMNUM, elem, 0, NUM, MAX
*get, _MAXNODENUM, node, 0, NUM, MAX
*get, _MAXELEMTYPE, etyp, 0, NUM, MAX
*get, _MAXREALCONST, rcon, 0, NUM, MAX
/go
/wb,load,end               !  done creating loads
/com,--- Number of total nodes = %_numnode%
/com,--- Number of contact elements = 84
/com,--- Number of spring elements = 0
/com,--- Number of bearing elements = 0
/com,--- Number of solid elements = 266
/com,--- Number of condensed parts = 0
/com,--- Number of total elements = %_numelem%
*get,_wallbsol,active,,time,wall
/solu
antype,harm
hropt,auto
thexpand,off     ! ignore thermal strains
kbc,1
harfrq,100000,140000
nsub,300
outres,erase
outres,all,none
outres,nsol,all
outres,eangl,all
outres,etmp,all
outres,veng,all
outres,strs,all
outres,epel,all
outres,rsol,all
outres,cont,all
! ****** Begin Custom Load Command Snippet ******
/com,
/com,***********  Piezoelectric Body67 ***********
/com,
CMBLOCK,Piezoelectric Body67,NODE,      61
(8i10)
         1         2         3         4         5         6         7         8
         9        10        11        12        13        14        15        16
        17        18        19        20        21        22        23        24
        25        26        27        28        29        30        31        32
        33        34        35        36        37        38        39        40
        41        42        43        44        45        46        47        48
        49        50        51        52        53        54        55        56
        57        58        59        60        61

/PREP7
CMSEL,S,Piezoelectric Body67
ESLN,S,1
ESEL,R,ENAME,,185
*GET,iNum185,ELEM,0, COUNT
*IF, iNum185,GT,0,THEN
_icurrentElem = 0
*DO,ar30,1,iNum185,1
    _icurrentElem = ELNEXT(_icurrentElem)
    EMODIF,_icurrentElem,ESYS,0
	*GET, _icurrentETyp, ELEM, _icurrentElem, ATTR, TYPE
    ET,_icurrentETyp,226,1001
	*GET, _icurrentMat, ELEM, _icurrentElem, ATTR, MAT
	MPDELE,RSVX, _icurrentMat
	MPDELE,RSVY, _icurrentMat
	MPDELE,RSVZ, _icurrentMat
	TB,PIEZ,_icurrentMat,,,0
	TBDATA,  2, -2.92
	TBDATA,  5, 23.4
	TBDATA,  8, -2.92
	TBDATA, 10, 16.19
	TBDATA, 15, 16.19
  
	TB,DPER,_icurrentMat,,,0
	TBDATA, 1, 2120, 1980, 2120
  
*ENDDO
*ENDIF

CMSEL,S,Piezoelectric Body67
ESLN,S,1
ESEL,R,ENAME,,186
*GET,iNum186,ELEM,0, COUNT
*IF, iNum186,GT,0,THEN
_icurrentElem = 0
*DO,ar30,1,iNum186,1
    _icurrentElem = ELNEXT(_icurrentElem)
    EMODIF,_icurrentElem,ESYS,0
	*GET, _icurrentETyp, ELEM, _icurrentElem, ATTR, TYPE
    ET,_icurrentETyp,226,1001
	*GET, _icurrentMat, ELEM, _icurrentElem, ATTR, MAT
	MPDELE,RSVX, _icurrentMat
	MPDELE,RSVY, _icurrentMat
	MPDELE,RSVZ, _icurrentMat
	TB,PIEZ,_icurrentMat,,,0
	TBDATA,  2, -2.92
	TBDATA,  5, 23.4
	TBDATA,  8, -2.92
	TBDATA, 10, 16.19
	TBDATA, 15, 16.19
  
	TB,DPER,_icurrentMat,,,0
	TBDATA, 1, 2120, 1980, 2120
  
*ENDDO
*ENDIF

CMSEL,S,Piezoelectric Body67
ESLN,S,1
ESEL,R,ENAME,,187
*GET,iNum187,ELEM,0, COUNT
*IF, iNum187,GT,0,THEN
_icurrentElem = 0
*DO,ar30,1,iNum187,1
    _icurrentElem = ELNEXT(_icurrentElem)
    EMODIF,_icurrentElem,ESYS,0
	*GET, _icurrentETyp, ELEM, _icurrentElem, ATTR, TYPE
    ET,_icurrentETyp,227,1001
	*GET, _icurrentMat, ELEM, _icurrentElem, ATTR, MAT
	MPDELE,RSVX, _icurrentMat
	MPDELE,RSVY, _icurrentMat
	MPDELE,RSVZ, _icurrentMat
	TB,PIEZ,_icurrentMat,,,0
	TBDATA,  2, -2.92
	TBDATA,  5, 23.4
	TBDATA,  8, -2.92
	TBDATA, 10, 16.19
	TBDATA, 15, 16.19
  
	TB,DPER,_icurrentMat,,,0
	TBDATA, 1, 2120, 1980, 2120
  
*ENDDO
*ENDIF

CMSEL,S,Piezoelectric Body67
ESLN,S,1
ESEL,R,ENAME,,182
*GET,iNum182,ELEM,0, COUNT
*IF, iNum182,GT,0,THEN
_icurrentElem = 0
*DO,ar30,1,iNum182,1
    _icurrentElem = ELNEXT(_icurrentElem)
    EMODIF,_icurrentElem,ESYS,0
	*GET, _icurrentETyp, ELEM, _icurrentElem, ATTR, TYPE
	*GET, _planebehavior, ETYP, _icurrentETyp, ATTR, KOP3
	*IF, _planebehavior, EQ, 3, THEN
	    _planebehavior = 0
	*ENDIF
    ET,_icurrentETyp,223,1001,,_planebehavior
	*GET, _icurrentMat, ELEM, _icurrentElem, ATTR, MAT
	MPDELE,RSVX, _icurrentMat
	MPDELE,RSVY, _icurrentMat
	MPDELE,RSVZ, _icurrentMat
	TB,PIEZ,_icurrentMat,,,0
	TBDATA,  2, -2.92
	TBDATA,  5, 23.4
	TBDATA,  8, -2.92
	TBDATA, 10, 16.19
  
	TB,DPER,_icurrentMat,,,0
	TBDATA, 1, 2120, 1980, 2120
  
*ENDDO
*ENDIF

CMSEL,S,Piezoelectric Body67
ESLN,S,1
ESEL,R,ENAME,,183
*GET,iNum183,ELEM,0, COUNT
*IF, iNum183,GT,0,THEN
_icurrentElem = 0
*DO,ar30,1,iNum183,1
    _icurrentElem = ELNEXT(_icurrentElem)
    EMODIF,_icurrentElem,ESYS,0
	*GET, _icurrentETyp, ELEM, _icurrentElem, ATTR, TYPE
	*GET, _planebehavior, ETYP, _icurrentETyp, ATTR, KOP3
	*IF, _planebehavior, EQ, 3, THEN
	    _planebehavior = 0
	*ENDIF
    ET,_icurrentETyp,223,1001,,_planebehavior
	*GET, _icurrentMat, ELEM, _icurrentElem, ATTR, MAT
	MPDELE,RSVX, _icurrentMat
	MPDELE,RSVY, _icurrentMat
	MPDELE,RSVZ, _icurrentMat
	TB,PIEZ,_icurrentMat,,,0
	TBDATA,  2, -2.92
	TBDATA,  5, 23.4
	TBDATA,  8, -2.92
	TBDATA, 10, 16.19
  
	TB,DPER,_icurrentMat,,,0
	TBDATA, 1, 2120, 1980, 2120
  
*ENDDO
*ENDIF

EMUNIT, EPZRO, 8.854E-12

/SOLU
ALLSEL,ALL
OUTRES,FGRAD,ALL

/com,
/com,***********  Piezoelectric Body 2100 ***********
/com,
CMBLOCK,Piezoelectric Body100,NODE,      61
(8i10)
       896       897       898       899       900       901       902       903
       904       905       906       907       908       909       910       911
       912       913       914       915       916       917       918       919
       920       921       922       923       924       925       926       927
       928       929       930       931       932       933       934       874
       875       876       877       878       879       880       881       882
       883       884       885       886       887       888       889       890
       891       892       893       894       895

/PREP7
CMSEL,S,Piezoelectric Body100
ESLN,S,1
ESEL,R,ENAME,,185
*GET,iNum185,ELEM,0, COUNT
*IF, iNum185,GT,0,THEN
_icurrentElem = 0
*DO,ar30,1,iNum185,1
    _icurrentElem = ELNEXT(_icurrentElem)
    EMODIF,_icurrentElem,ESYS,0
	*GET, _icurrentETyp, ELEM, _icurrentElem, ATTR, TYPE
    ET,_icurrentETyp,226,1001
	*GET, _icurrentMat, ELEM, _icurrentElem, ATTR, MAT
	MPDELE,RSVX, _icurrentMat
	MPDELE,RSVY, _icurrentMat
	MPDELE,RSVZ, _icurrentMat
	TB,PIEZ,_icurrentMat,,,0
	TBDATA,  2, -2.92
	TBDATA,  5, 23.4
	TBDATA,  8, -2.92
	TBDATA, 10, 16.19
	TBDATA, 15, 16.19
  
	TB,DPER,_icurrentMat,,,0
	TBDATA, 1, 2120, 1980, 2120
  
*ENDDO
*ENDIF

CMSEL,S,Piezoelectric Body100
ESLN,S,1
ESEL,R,ENAME,,186
*GET,iNum186,ELEM,0, COUNT
*IF, iNum186,GT,0,THEN
_icurrentElem = 0
*DO,ar30,1,iNum186,1
    _icurrentElem = ELNEXT(_icurrentElem)
    EMODIF,_icurrentElem,ESYS,0
	*GET, _icurrentETyp, ELEM, _icurrentElem, ATTR, TYPE
    ET,_icurrentETyp,226,1001
	*GET, _icurrentMat, ELEM, _icurrentElem, ATTR, MAT
	MPDELE,RSVX, _icurrentMat
	MPDELE,RSVY, _icurrentMat
	MPDELE,RSVZ, _icurrentMat
	TB,PIEZ,_icurrentMat,,,0
	TBDATA,  2, -2.92
	TBDATA,  5, 23.4
	TBDATA,  8, -2.92
	TBDATA, 10, 16.19
	TBDATA, 15, 16.19
  
	TB,DPER,_icurrentMat,,,0
	TBDATA, 1, 2120, 1980, 2120
  
*ENDDO
*ENDIF

CMSEL,S,Piezoelectric Body100
ESLN,S,1
ESEL,R,ENAME,,187
*GET,iNum187,ELEM,0, COUNT
*IF, iNum187,GT,0,THEN
_icurrentElem = 0
*DO,ar30,1,iNum187,1
    _icurrentElem = ELNEXT(_icurrentElem)
    EMODIF,_icurrentElem,ESYS,0
	*GET, _icurrentETyp, ELEM, _icurrentElem, ATTR, TYPE
    ET,_icurrentETyp,227,1001
	*GET, _icurrentMat, ELEM, _icurrentElem, ATTR, MAT
	MPDELE,RSVX, _icurrentMat
	MPDELE,RSVY, _icurrentMat
	MPDELE,RSVZ, _icurrentMat
	TB,PIEZ,_icurrentMat,,,0
	TBDATA,  2, -2.92
	TBDATA,  5, 23.4
	TBDATA,  8, -2.92
	TBDATA, 10, 16.19
	TBDATA, 15, 16.19
  
	TB,DPER,_icurrentMat,,,0
	TBDATA, 1, 2120, 1980, 2120
  
*ENDDO
*ENDIF

CMSEL,S,Piezoelectric Body100
ESLN,S,1
ESEL,R,ENAME,,182
*GET,iNum182,ELEM,0, COUNT
*IF, iNum182,GT,0,THEN
_icurrentElem = 0
*DO,ar30,1,iNum182,1
    _icurrentElem = ELNEXT(_icurrentElem)
    EMODIF,_icurrentElem,ESYS,0
	*GET, _icurrentETyp, ELEM, _icurrentElem, ATTR, TYPE
	*GET, _planebehavior, ETYP, _icurrentETyp, ATTR, KOP3
	*IF, _planebehavior, EQ, 3, THEN
	    _planebehavior = 0
	*ENDIF
    ET,_icurrentETyp,223,1001,,_planebehavior
	*GET, _icurrentMat, ELEM, _icurrentElem, ATTR, MAT
	MPDELE,RSVX, _icurrentMat
	MPDELE,RSVY, _icurrentMat
	MPDELE,RSVZ, _icurrentMat
	TB,PIEZ,_icurrentMat,,,0
	TBDATA,  2, -2.92
	TBDATA,  5, 23.4
	TBDATA,  8, -2.92
	TBDATA, 10, 16.19
  
	TB,DPER,_icurrentMat,,,0
	TBDATA, 1, 2120, 1980, 2120
  
*ENDDO
*ENDIF

CMSEL,S,Piezoelectric Body100
ESLN,S,1
ESEL,R,ENAME,,183
*GET,iNum183,ELEM,0, COUNT
*IF, iNum183,GT,0,THEN
_icurrentElem = 0
*DO,ar30,1,iNum183,1
    _icurrentElem = ELNEXT(_icurrentElem)
    EMODIF,_icurrentElem,ESYS,0
	*GET, _icurrentETyp, ELEM, _icurrentElem, ATTR, TYPE
	*GET, _planebehavior, ETYP, _icurrentETyp, ATTR, KOP3
	*IF, _planebehavior, EQ, 3, THEN
	    _planebehavior = 0
	*ENDIF
    ET,_icurrentETyp,223,1001,,_planebehavior
	*GET, _icurrentMat, ELEM, _icurrentElem, ATTR, MAT
	MPDELE,RSVX, _icurrentMat
	MPDELE,RSVY, _icurrentMat
	MPDELE,RSVZ, _icurrentMat
	TB,PIEZ,_icurrentMat,,,0
	TBDATA,  2, -2.92
	TBDATA,  5, 23.4
	TBDATA,  8, -2.92
	TBDATA, 10, 16.19
  
	TB,DPER,_icurrentMat,,,0
	TBDATA, 1, 2120, 1980, 2120
  
*ENDDO
*ENDIF

EMUNIT, EPZRO, 8.854E-12

/SOLU
ALLSEL,ALL
OUTRES,FGRAD,ALL

/com,
/com,***********  Voltage133 ***********
/com,
CMBLOCK,Voltage133,NODE,      15
(8i10)
        32         2        34         4         5         6         7         8
         9        10        36        38        40        28        30

CMSEL,S,Voltage133
*GET,_NUMMIN,NODE,,NUM,MIN
_isCP = 0
*GET, _isCP, NODE, _NUMMIN, CPS, VOLT
*IF, _isCP, EQ, 0, THEN
CP,NEXT,VOLT,ALL
*ENDIF
D,_NUMMIN,VOLT,0,0
ALLSEL,ALL

/com,
/com,***********  Voltage 2153 ***********
/com,
CMBLOCK,Voltage153,NODE,      15
(8i10)
         1        11        44        13        46        14        16        17
        18        48        15        50        52        54        26

CMSEL,S,Voltage153
*GET,_NUMMIN,NODE,,NUM,MIN
_isCP = 0
*GET, _isCP, NODE, _NUMMIN, CPS, VOLT
*IF, _isCP, EQ, 0, THEN
CP,NEXT,VOLT,ALL
*ENDIF
D,_NUMMIN,VOLT,5,0
ALLSEL,ALL

/com,
/com,***********  Voltage 3173 ***********
/com,
CMBLOCK,Voltage173,NODE,      15
(8i10)
       926       882       914       884       885       886       887       888
       889       890       916       918       920       922       924

CMSEL,S,Voltage173
*GET,_NUMMIN,NODE,,NUM,MIN
_isCP = 0
*GET, _isCP, NODE, _NUMMIN, CPS, VOLT
*IF, _isCP, EQ, 0, THEN
CP,NEXT,VOLT,ALL
*ENDIF
D,_NUMMIN,VOLT,0,0
ALLSEL,ALL

! ****** End   Custom Load Command Snippet ******
! *********** WB SOLVE COMMAND ***********
! check interactive state
*get,ANSINTER_,active,,int
*if,ANSINTER_,ne,0,then
/eof
*endif
solve
/com *************** Write FE CONNECTORS ********* 
CEWRITE,file,ce,,INTE
save,file,db
fini
/nopr
*get,_numnode,node,0,count
*get,_numelem,elem,0,count
*get, _MAXELEMNUM, elem, 0, NUM, MAX
*get, _MAXNODENUM, node, 0, NUM, MAX,,,INTERNAL
*get, _MAXELEMTYPE, etyp, 0, NUM, MAX
*get, _MAXREALCONST, rcon, 0, NUM, MAX
*get,_NSOLTHREADS,active,0,ntfs
*get,_NSOLPROCESSES,active,0,npfs
/gopr
*get,_wallasol,active,,time,wall
/post1
xmlo,ENCODING,ISO-8859-1
xmlo,parm
/xml,parm,xml
fini
/gopr
*get,_walldone,active,,time,wall
_preptime=(_wallbsol-_wallstrt)*3600
_solvtime=(_wallasol-_wallbsol)*3600
_posttime=(_walldone-_wallasol)*3600
_totaltim=(_walldone-_wallstrt)*3600
*get,_dlbratio,active,0,solu,dlbr
*get,_combtime,active,0,solu,comb
*get,_ssmode,active,0,solu,ssmm
*get,_ndofs,active,0,solu,ndof
/fclean				!clean distributed files
/com,--- Total number of nodes = %_numnode%
/com,--- Total number of elements = %_numelem%
/com,--- Element load balance ratio = %_dlbratio%
/com,--- Time to combine distributed files = %_combtime%
/com,--- Sparse memory mode = %_ssmode%
/com,--- Number of DOF = %_ndofs%
/wb,file,end               ! done with WB generated input
