/batch
/config,noeldb,1     ! force off writing results to database
*get,_wallstrt,active,,time,wall
! ANSYS input file written by Workbench version 2023 R1
! File used for geometry attach: C:\Users\simon\Desktop\Test Ansys - Copia\test_files\dp0\Geom-7\DM\Geom-7.agdb
/title,test--Harmonic Response (F5)
! ****** Begin Custom Load Command Snippet ******
/COM, ACT Extensions:
/COM,     PiezoAndMEMS, 2020.1
/COM,     0cd64874-101b-4182-aef8-530cf9982bb6, wbex
/COM,/COM,     LSDYNA, 2023.1
/COM,     5f463412-bd3e-484b-87e7-cbc0a665e474, wbex
/COM,/COM,     ANSYSMotion, 2023.1
/COM,     20180725-3f81-49eb-9f31-41364844c769, wbex
/COM,
! ****** End   Custom Load Command Snippet ******
*DIM,_wb_ProjectScratch_dir,string,248
_wb_ProjectScratch_dir(1) = 'C:\Users\simon\Desktop\Test Ansys - Copia\_ProjectScratch\ScrF2C9\'
*DIM,_wb_SolverFiles_dir,string,248
_wb_SolverFiles_dir(1) = 'C:\Users\simon\Desktop\Test Ansys - Copia\test_files\dp0\SYS-9\MECH\'
*DIM,_wb_userfiles_dir,string,248
_wb_userfiles_dir(1) = 'C:\Users\simon\Desktop\Test Ansys - Copia\test_files\user_files\'
/com,--- Data in consistent MKS units. See Solving Units in the help system for more information.
/units,MKS
/nopr
/wb,file,start              !  signify a WB generated input file
/prep7
! Turn off shape checking because checks already performed inside WB mesher.
! See help system for more information.
SHPP,OFF,,NOWARN
/nolist
etcon,set             ! allow ANSYS to choose best KEYOP's for 180x elements, resets any applicable keyopt to MAPDL defaults
/com,*********** Nodes for the whole assembly ***********
nblock,3,,1485
(1i9,3e20.9e3)
        1     0.000000000E+00     1.150000000E-02     0.000000000E+00
        2     4.000000000E-03     1.150000000E-02     0.000000000E+00
        3     6.666666667E-04     1.150000000E-02     0.000000000E+00
        4     1.333333333E-03     1.150000000E-02     0.000000000E+00
        5     2.000000000E-03     1.150000000E-02     0.000000000E+00
        6     2.666666667E-03     1.150000000E-02     0.000000000E+00
        7     3.333333333E-03     1.150000000E-02     0.000000000E+00
        8     0.000000000E+00     1.050000000E-02     0.000000000E+00
        9     0.000000000E+00     1.100000000E-02     0.000000000E+00
       10     4.000000000E-03     1.050000000E-02     0.000000000E+00
       11     6.666666667E-04     1.050000000E-02     0.000000000E+00
       12     1.333333333E-03     1.050000000E-02     0.000000000E+00
       13     2.000000000E-03     1.050000000E-02     0.000000000E+00
       14     2.666666667E-03     1.050000000E-02     0.000000000E+00
       15     3.333333333E-03     1.050000000E-02     0.000000000E+00
       16     4.000000000E-03     1.100000000E-02     0.000000000E+00
       17     2.663808924E-03     1.100000065E-02     0.000000000E+00
       18     1.994756989E-03     1.099997703E-02     0.000000000E+00
       19     1.331320319E-03     1.099999986E-02     0.000000000E+00
       20     6.638576224E-04     1.100000077E-02     0.000000000E+00
! ... 1331 like lines cut
/wb,elem,start            !  set before creation of elements
/com,*********** Elements for Body 1 "Surface Body" ***********
et,1,183
keyo,1,3,1
eblock,19,solid,,54
(19i9)
        1        1        1        1        0        0        0        0        8        0      109      429      407      408      462      503      502      504      544
        1        1        1        1        0        0        0        0        8        0      110      462      461      430      429      591      546      543      544
        1        1        1        1        0        0        0        0        8        0      111      429      389      387      407      468      463      464      503
        1        1        1        1        0        0        0        0        8        0      112      430      390      389      429      470      467      468      543
        1        1        1        1        0        0        0        0        8        0      113      461      460      431      430      590      548      545      546
        1        1        1        1        0        0        0        0        8        0      114      431      391      390      430      472      469      470      545
        1        1        1        1        0        0        0        0        8        0      115      460      459      432      431      589      550      547      548
        1        1        1        1        0        0        0        0        8        0      116      432      392      391      431      474      471      472      547
        1        1        1        1        0        0        0        0        8        0      117      459      458      433      432      588      552      549      550
        1        1        1        1        0        0        0        0        8        0      118      433      393      392      432      476      473      474      549
        1        1        1        1        0        0        0        0        8        0      119      458      457      434      433      587      554      551      552
        1        1        1        1        0        0        0        0        8        0      120      434      394      393      433      478      475      476      551
        1        1        1        1        0        0        0        0        8        0      121      457      456      435      434      586      556      553      554
        1        1        1        1        0        0        0        0        8        0      122      435      395      394      434      480      477      478      553
        1        1        1        1        0        0        0        0        8        0      123      456      455      436      435      585      558      555      556
        1        1        1        1        0        0        0        0        8        0      124      436      396      395      435      482      479      480      555
        1        1        1        1        0        0        0        0        8        0      125      455      454      437      436      584      560      557      558
        1        1        1        1        0        0        0        0        8        0      126      437      397      396      436      484      481      482      557
        1        1        1        1        0        0        0        0        8        0      127      454      453      438      437      583      562      559      560
        1        1        1        1        0        0        0        0        8        0      128      438      398      397      437      486      483      484      559
! ... 35 like lines cut
!Material Id = {0A922993-211B-44A3-8B2E-62CFBBFB494C}
/com,*********** Elements for Body 2 "Surface Body" ***********
et,2,183
keyo,2,3,1
eblock,19,solid,,108
(19i9)
        2        2        2        2        0        0        0        0        8        0      271     1035     1104     1105     1026     1234     1350     1206     1203
        2        2        2        2        0        0        0        0        8        0      272     1026     1046     1044     1035     1205     1259     1233     1203
        2        2        2        2        0        0        0        0        8        0      273     1105     1037     1036     1026     1241     1236     1204     1206
        2        2        2        2        0        0        0        0        8        0      274     1036     1047     1046     1026     1238     1265     1205     1204
        2        2        2        2        0        0        0        0        8        0      275     1035     1110     1092     1104     1235     1336     1335     1234
        2        2        2        2        0        0        0        0        8        0      276     1110     1034     1102     1092     1232     1231     1334     1336
        2        2        2        2        0        0        0        0        8        0      277     1034     1033     1107     1102     1227     1229     1348     1231
        2        2        2        2        0        0        0        0        8        0      278     1033     1032     1103     1107     1224     1226     1349     1229
        2        2        2        2        0        0        0        0        8        0      279     1032     1031     1093     1103     1221     1222     1337     1226
        2        2        2        2        0        0        0        0        8        0      280     1031     1030     1108     1093     1218     1220     1338     1222
        2        2        2        2        0        0        0        0        8        0      281     1030     1029     1098     1108     1215     1217     1345     1220
        2        2        2        2        0        0        0        0        8        0      282     1029     1028     1040     1098     1211     1212     1249     1217
        2        2        2        2        0        0        0        0        8        0      283     1028     1097     1109     1040     1214     1344     1250     1212
        2        2        2        2        0        0        0        0        8        0      284     1039     1050     1038     1027     1245     1243     1207     1208
        2        2        2        2        0        0        0        0        8        0      285     1027     1097     1094     1039     1210     1339     1247     1208
        2        2        2        2        0        0        0        0        8        0      286     1038     1049     1041     1027     1242     1251     1209     1207
        2        2        2        2        0        0        0        0        8        0      287     1027     1041     1109     1097     1209     1253     1344     1210
        2        2        2        2        0        0        0        0        8        0      288     1029     1043     1042     1028     1216     1254     1213     1211
        2        2        2        2        0        0        0        0        8        0      289     1028     1042     1094     1097     1213     1256     1339     1214
        2        2        2        2        0        0        0        0        8        0      290     1031     1100     1099     1030     1223     1346     1219     1218
! ... 89 like lines cut
!Material Id = {2C65B3C4-80AB-4731-B410-830994FADE0D}
/com,*********** Elements for Body 3 "Surface Body" ***********
et,3,183
keyo,3,3,1
eblock,19,solid,,96
(19i9)
        3        3        3        3        0        0        0        0        8        0      163      637      706      710      636      801      923      798      795
        3        3        3        3        0        0        0        0        8        0      164      636      655      654      637      797      847      800      795
        3        3        3        3        0        0        0        0        8        0      165      710      651      638      636      841      803      796      798
        3        3        3        3        0        0        0        0        8        0      166      638      656      655      636      804      850      797      796
        3        3        3        3        0        0        0        0        8        0      167      654      705      639      637      849      807      799      800
        3        3        3        3        0        0        0        0        8        0      168      639      701      706      637      806      920      801      799
        3        3        3        3        0        0        0        0        8        0      169      651      650      641      638      838      812      802      803
        3        3        3        3        0        0        0        0        8        0      170      641      658      656      638      813      852      804      802
        3        3        3        3        0        0        0        0        8        0      171      650      647      646      641      829      826      811      812
        3        3        3        3        0        0        0        0        8        0      172      647      660      657      646      830      854      827      826
        3        3        3        3        0        0        0        0        8        0      173      705      709      640      639      922      810      805      807
        3        3        3        3        0        0        0        0        8        0      174      709      700      642      640      918      815      808      810
        3        3        3        3        0        0        0        0        8        0      175      700      707      643      642      917      819      814      815
        3        3        3        3        0        0        0        0        8        0      176      707      708      644      643      924      822      817      819
        3        3        3        3        0        0        0        0        8        0      177      640      702      701      639      809      919      806      805
        3        3        3        3        0        0        0        0        8        0      178      642      703      702      640      816      921      809      808
        3        3        3        3        0        0        0        0        8        0      179      646      659      658      641      828      857      813      811
        3        3        3        3        0        0        0        0        8        0      180      643      652      703      642      818      844      816      814
        3        3        3        3        0        0        0        0        8        0      181      644      653      652      643      821      842      818      817
        3        3        3        3        0        0        0        0        8        0      182      708      649      645      644      837      824      820      822
! ... 77 like lines cut
!Material Id = {351F5684-F7A2-4A0D-8E3C-AC27F86231DC}
/com,*********** Elements for Body 4 "Surface Body" ***********
et,4,183
keyo,4,3,1
eblock,19,solid,,12
(19i9)
        4        4        4        4        0        0        0        0        8        0      259      945      931      930      941      958      956      957      975
        4        4        4        4        0        0        0        0        8        0      260      941      938      939      945      971      970      972      975
        4        4        4        4        0        0        0        0        8        0      261      930      929      942      941      954      955      974      957
        4        4        4        4        0        0        0        0        8        0      262      942      937      938      941      969      968      971      974
        4        4        4        4        0        0        0        0        8        0      263      929      928      943      942      952      953      976      955
        4        4        4        4        0        0        0        0        8        0      264      943      936      937      942      967      966      969      976
        4        4        4        4        0        0        0        0        8        0      265      928      927      944      943      950      951      977      953
        4        4        4        4        0        0        0        0        8        0      266      944      935      936      943      965      964      967      977
        4        4        4        4        0        0        0        0        8        0      267      927      925      933      944      946      947      961      951
        4        4        4        4        0        0        0        0        8        0      268      944      933      932      935      961      959      960      965
        4        4        4        4        0        0        0        0        8        0      269      939      934      940      945      962      963      973      972
        4        4        4        4        0        0        0        0        8        0      270      945      940      926      931      973      949      948      958
-1
!Material Id = {4566550F-E4FA-45CB-B556-0AD1795A2332}
/com,*********** Elements for Body 5 "Surface Body" ***********
et,5,183
keyo,5,3,1
eblock,19,solid,,12
(19i9)
        5        5        5        5        0        0        0        0        8        0        1       21        7        6       17       34       32       33       51
        5        5        5        5        0        0        0        0        8        0        2       17       14       15       21       47       46       48       51
        5        5        5        5        0        0        0        0        8        0        3        6        5       18       17       30       31       50       33
        5        5        5        5        0        0        0        0        8        0        4       18       13       14       17       45       44       47       50
        5        5        5        5        0        0        0        0        8        0        5        5        4       19       18       28       29       52       31
        5        5        5        5        0        0        0        0        8        0        6       19       12       13       18       43       42       45       52
        5        5        5        5        0        0        0        0        8        0        7        4        3       20       19       26       27       53       29
        5        5        5        5        0        0        0        0        8        0        8       20       11       12       19       41       40       43       53
        5        5        5        5        0        0        0        0        8        0        9        3        1        9       20       22       23       37       27
        5        5        5        5        0        0        0        0        8        0       10       20        9        8       11       37       35       36       41
        5        5        5        5        0        0        0        0        8        0       11       15       10       16       21       38       39       49       48
        5        5        5        5        0        0        0        0        8        0       12       21       16        2        7       49       25       24       34
-1
!Material Id = {5BE62F44-9FEF-4C5E-A7A5-577D02C0AEB3}
/com,*********** Elements for Body 6 "Surface Body" ***********
et,6,183
keyo,6,3,1
eblock,19,solid,,96
(19i9)
        6        6        6        6        0        0        0        0        8        0       13       99      168      172       98      263      385      260      257
        6        6        6        6        0        0        0        0        8        0       14       98      117      116       99      259      309      262      257
        6        6        6        6        0        0        0        0        8        0       15      172      113      100       98      303      265      258      260
        6        6        6        6        0        0        0        0        8        0       16      100      118      117       98      266      312      259      258
        6        6        6        6        0        0        0        0        8        0       17      116      167      101       99      311      269      261      262
        6        6        6        6        0        0        0        0        8        0       18      101      163      168       99      268      382      263      261
        6        6        6        6        0        0        0        0        8        0       19      113      112      103      100      300      274      264      265
        6        6        6        6        0        0        0        0        8        0       20      103      120      118      100      275      314      266      264
        6        6        6        6        0        0        0        0        8        0       21      112      109      108      103      291      288      273      274
        6        6        6        6        0        0        0        0        8        0       22      109      122      119      108      292      316      289      288
        6        6        6        6        0        0        0        0        8        0       23      167      171      102      101      384      272      267      269
        6        6        6        6        0        0        0        0        8        0       24      171      162      104      102      380      277      270      272
        6        6        6        6        0        0        0        0        8        0       25      162      169      105      104      379      281      276      277
        6        6        6        6        0        0        0        0        8        0       26      169      170      106      105      386      284      279      281
        6        6        6        6        0        0        0        0        8        0       27      102      164      163      101      271      381      268      267
        6        6        6        6        0        0        0        0        8        0       28      104      165      164      102      278      383      271      270
        6        6        6        6        0        0        0        0        8        0       29      108      121      120      103      290      319      275      273
        6        6        6        6        0        0        0        0        8        0       30      105      114      165      104      280      306      278      276
        6        6        6        6        0        0        0        0        8        0       31      106      115      114      105      283      304      280      279
        6        6        6        6        0        0        0        0        8        0       32      170      111      107      106      299      286      282      284
! ... 77 like lines cut
!Material Id = {320C0573-FBF3-4123-94C0-658F1FB5145C}
/wb,elem,end               !  done creating elements
/com,*********** Send User Defined Coordinate System(s) ***********
csys,0
toffst,273.15,  ! Temperature offset from absolute zero
/com,*********** Set Reference Temperature ***********
tref,22.
/wb,mat,start              !  starting to send materials
/com,*********** Send Materials ***********
MP,DENS,1,4507,	! kg m^-3
MP,EX,1,168000000000,	! Pa
MP,NUXY,1,0.32,
MP,UVID,1,1278a9eb-e217-4719-9826-70dfb7de797f

MP,DENS,2,4507,	! kg m^-3
MP,EX,2,168000000000,	! Pa
MP,NUXY,2,0.32,
MP,UVID,2,1278a9eb-e217-4719-9826-70dfb7de797f

MP,DENS,3,4507,	! kg m^-3
MP,EX,3,168000000000,	! Pa
MP,NUXY,3,0.32,
MP,UVID,3,1278a9eb-e217-4719-9826-70dfb7de797f

MP,DENS,4,7780,	! kg m^-3

TB,ELASTIC,4,,,AELS

TBDATA,1,114000000000,75700000000,72400000000,0,0,0
TBDATA,7,114000000000,72400000000,0,0,0,111000000000
TBDATA,13,0,0,0,26300000000,0,0
TBDATA,19,26300000000,0,19200000000

TB,DPER,4,,,0

TBDATA,1,2120,2120,1980,0,0,0
MP,UVID,4,9bc49b53-da38-4945-b103-512bf6ee2102

MP,DENS,5,7780,	! kg m^-3

TB,ELASTIC,5,,,AELS

TBDATA,1,114000000000,75700000000,72400000000,0,0,0
TBDATA,7,114000000000,72400000000,0,0,0,111000000000
TBDATA,13,0,0,0,26300000000,0,0
TBDATA,19,26300000000,0,19200000000

TB,DPER,5,,,0

TBDATA,1,2120,2120,1980,0,0,0
MP,UVID,5,9bc49b53-da38-4945-b103-512bf6ee2102

MP,DENS,6,4507,	! kg m^-3
MP,EX,6,168000000000,	! Pa
MP,NUXY,6,0.32,
MP,UVID,6,1278a9eb-e217-4719-9826-70dfb7de797f

/wb,mat,end                !  done sending materials
/com,*********** Send Sheet Properties ***********
!************************* Model Summary ********************
!Surface Body,	Titanio,	matid,	1
!Surface Body,	Titanio,	matid,	2
!Surface Body,	Titanio,	matid,	3
!Surface Body,	PZ 21,	matid,	4
!Surface Body,	PZ 21,	matid,	5
!Surface Body,	Titanio,	matid,	6
!************************* End Model Summary ********************
! get the diagonal of the bounding box. Needed later for other things
*get,_xmin,node,,mnloc,x
*get,_ymin,node,,mnloc,y
*get,_zmin,node,,mnloc,z
*get,_xmax,node,,mxloc,x
*get,_ymax,node,,mxloc,y
*get,_zmax,node,,mxloc,z
_ASMDIAG=(_xmax-_xmin)*(_xmax-_xmin)+(_ymax-_ymin)*(_ymax-_ymin)+(_zmax-_zmin)*(_zmax-_zmin)
_ASMDIAG=SQRT(_ASMDIAG)
/wb,contact,start          !  starting to send contact
/com,*********** Create Contact "Contact Region 3" ***********
/com,            Real Constant Set For Above Contact Is 8 & 7 
*set,tid,8
*set,cid,7
r,tid
r,cid
et,tid,169
et,cid,172
eblock,10,,,3
(15i9)
      379        8        8        8        0      428      388      466
      380        8        8        8        0      427      428      540
      381        8        8        8        0      409      427      506
-1
eblock,10,,,3
(15i9)
      382        7        7        7        0      428      388      466
      383        7        7        7        0      427      428      540
      384        7        7        7        0      409      427      506
-1
eblock,10,,,3
(15i9)
      385        7        8        7        0      980      978     1111
      386        7        8        7        0      981      980     1116
      387        7        8        7        0      979      981     1113
-1
eblock,10,,,3
(15i9)
      388        8        7        8        0      980      978     1111
      389        8        7        8        0      981      980     1116
      390        8        7        8        0      979      981     1113
-1
keyo,cid,8,2               ! auto create asymmetric contact (from Program Controlled setting)
keyo,cid,10,0              ! adjust contact stiffness each NR iteration (from Program Controlled setting)
keyo,cid,12,5              ! bonded always
keyo,cid,18,1              ! small sliding turned on by application
keyo,cid,2,0               ! augmented Lagrange (from Program Controlled setting)
keyo,cid,4,0               ! on Gauss point (from Program Controlled setting)
keyo,cid,9,1               ! ignore initial gaps/penetration
keyo,cid,7,0               ! No Prediction
rmod,tid,3,10.      ! FKN
rmod,tid,5,0.       ! ICONT
rmod,tid,6,-1.16430235193654e-004       ! PINB
rmod,tid,10,0.      ! CNOF
rmod,tid,12,0.      ! FKT
rmod,tid,36,229     ! WB DSID
rmod,cid,3,10.      ! FKN
rmod,cid,5,0.       ! ICONT
rmod,cid,6,-1.16430235193654e-004       ! PINB
rmod,cid,10,0.      ! CNOF
rmod,cid,12,0.      ! FKT
rmod,cid,36,229     ! WB DSID
/com,*********** Create Contact "Contact Region 4" ***********
/com,            Real Constant Set For Above Contact Is 10 & 9 
*set,tid,10
*set,cid,9
r,tid
r,cid
et,tid,169
et,cid,172
eblock,10,,,6
(15i9)
      391       10       10       10        0     1005     1000     1154
      392       10       10       10        0     1004     1005     1162
      393       10       10       10        0     1003     1004     1160
      394       10       10       10        0     1002     1003     1158
      395       10       10       10        0     1001     1002     1156
      396       10       10       10        0      982     1001     1120
-1
eblock,10,,,6
(15i9)
      397        9        9        9        0     1005     1000     1154
      398        9        9        9        0     1004     1005     1162
      399        9        9        9        0     1003     1004     1160
      400        9        9        9        0     1002     1003     1158
      401        9        9        9        0     1001     1002     1156
      402        9        9        9        0      982     1001     1120
-1
eblock,10,,,6
(15i9)
      403        9       10        9        0      594      592      711
      404        9       10        9        0      595      594      715
      405        9       10        9        0      596      595      717
      406        9       10        9        0      597      596      719
      407        9       10        9        0      598      597      721
      408        9       10        9        0      593      598      713
-1
eblock,10,,,6
(15i9)
      409       10        9       10        0      594      592      711
      410       10        9       10        0      595      594      715
      411       10        9       10        0      596      595      717
      412       10        9       10        0      597      596      719
      413       10        9       10        0      598      597      721
      414       10        9       10        0      593      598      713
-1
keyo,cid,8,2               ! auto create asymmetric contact (from Program Controlled setting)
keyo,cid,10,0              ! adjust contact stiffness each NR iteration (from Program Controlled setting)
keyo,cid,12,5              ! bonded always
keyo,cid,18,1              ! small sliding turned on by application
keyo,cid,2,0               ! augmented Lagrange (from Program Controlled setting)
keyo,cid,4,0               ! on Gauss point (from Program Controlled setting)
keyo,cid,9,1               ! ignore initial gaps/penetration
keyo,cid,7,0               ! No Prediction
rmod,tid,3,10.      ! FKN
rmod,tid,5,0.       ! ICONT
rmod,tid,6,-1.16430235193654e-004       ! PINB
rmod,tid,10,0.      ! CNOF
rmod,tid,12,0.      ! FKT
rmod,tid,36,232     ! WB DSID
rmod,cid,3,10.      ! FKN
rmod,cid,5,0.       ! ICONT
rmod,cid,6,-1.16430235193654e-004       ! PINB
rmod,cid,10,0.      ! CNOF
rmod,cid,12,0.      ! FKT
rmod,cid,36,232     ! WB DSID
/com,*********** Create Contact "Contact Region 5" ***********
/com,            Real Constant Set For Above Contact Is 12 & 11 
*set,tid,12
*set,cid,11
r,tid
r,cid
et,tid,169
et,cid,172
eblock,10,,,6
(15i9)
      415       12       12       12        0      620      615      755
      416       12       12       12        0      619      620      763
      417       12       12       12        0      618      619      761
      418       12       12       12        0      617      618      759
      419       12       12       12        0      616      617      757
      420       12       12       12        0      599      616      725
-1
eblock,10,,,6
(15i9)
      421       11       11       11        0      620      615      755
      422       11       11       11        0      619      620      763
      423       11       11       11        0      618      619      761
      424       11       11       11        0      617      618      759
      425       11       11       11        0      616      617      757
      426       11       11       11        0      599      616      725
-1
eblock,10,,,6
(15i9)
      427       11       12       11        0      931      930      956
      428       11       12       11        0      930      929      954
      429       11       12       11        0      929      928      952
      430       11       12       11        0      928      927      950
      431       11       12       11        0      927      925      946
      432       11       12       11        0      926      931      948
-1
eblock,10,,,6
(15i9)
      433       12       11       12        0      931      930      956
      434       12       11       12        0      930      929      954
      435       12       11       12        0      929      928      952
      436       12       11       12        0      928      927      950
      437       12       11       12        0      927      925      946
      438       12       11       12        0      926      931      948
-1
keyo,cid,8,2               ! auto create asymmetric contact (from Program Controlled setting)
keyo,cid,10,0              ! adjust contact stiffness each NR iteration (from Program Controlled setting)
keyo,cid,12,5              ! bonded always
keyo,cid,18,1              ! small sliding turned on by application
keyo,cid,2,0               ! augmented Lagrange (from Program Controlled setting)
keyo,cid,4,0               ! on Gauss point (from Program Controlled setting)
keyo,cid,9,1               ! ignore initial gaps/penetration
keyo,cid,7,0               ! No Prediction
rmod,tid,3,10.      ! FKN
rmod,tid,5,0.       ! ICONT
rmod,tid,6,-1.16430235193654e-004       ! PINB
rmod,tid,10,0.      ! CNOF
rmod,tid,12,0.      ! FKT
rmod,tid,36,235     ! WB DSID
rmod,cid,3,10.      ! FKN
rmod,cid,5,0.       ! ICONT
rmod,cid,6,-1.16430235193654e-004       ! PINB
rmod,cid,10,0.      ! CNOF
rmod,cid,12,0.      ! FKT
rmod,cid,36,235     ! WB DSID
/com,*********** Create Contact "Contact Region 6" ***********
/com,            Real Constant Set For Above Contact Is 14 & 13 
*set,tid,14
*set,cid,13
r,tid
r,cid
et,tid,169
et,cid,172
eblock,10,,,6
(15i9)
      439       14       14       14        0      938      939      970
      440       14       14       14        0      937      938      968
      441       14       14       14        0      936      937      966
      442       14       14       14        0      935      936      964
      443       14       14       14        0      932      935      960
      444       14       14       14        0      939      934      962
-1
eblock,10,,,6
(15i9)
      445       13       13       13        0      938      939      970
      446       13       13       13        0      937      938      968
      447       13       13       13        0      936      937      966
      448       13       13       13        0      935      936      964
      449       13       13       13        0      932      935      960
      450       13       13       13        0      939      934      962
-1
eblock,10,,,6
(15i9)
      451       13       14       13        0        7        6       32
      452       13       14       13        0        6        5       30
      453       13       14       13        0        5        4       28
      454       13       14       13        0        4        3       26
      455       13       14       13        0        3        1       22
      456       13       14       13        0        2        7       24
-1
eblock,10,,,6
(15i9)
      457       14       13       14        0        7        6       32
      458       14       13       14        0        6        5       30
      459       14       13       14        0        5        4       28
      460       14       13       14        0        4        3       26
      461       14       13       14        0        3        1       22
      462       14       13       14        0        2        7       24
-1
keyo,cid,8,2               ! auto create asymmetric contact (from Program Controlled setting)
keyo,cid,10,0              ! adjust contact stiffness each NR iteration (from Program Controlled setting)
keyo,cid,12,5              ! bonded always
keyo,cid,18,1              ! small sliding turned on by application
keyo,cid,2,0               ! augmented Lagrange (from Program Controlled setting)
keyo,cid,4,0               ! on Gauss point (from Program Controlled setting)
keyo,cid,9,1               ! ignore initial gaps/penetration
keyo,cid,7,0               ! No Prediction
rmod,tid,3,10.      ! FKN
rmod,tid,5,0.       ! ICONT
rmod,tid,6,-1.16430235193654e-004       ! PINB
rmod,tid,10,0.      ! CNOF
rmod,tid,12,0.      ! FKT
rmod,tid,36,238     ! WB DSID
rmod,cid,3,10.      ! FKN
rmod,cid,5,0.       ! ICONT
rmod,cid,6,-1.16430235193654e-004       ! PINB
rmod,cid,10,0.      ! CNOF
rmod,cid,12,0.      ! FKT
rmod,cid,36,238     ! WB DSID
/com,*********** Create Contact "Contact Region 7" ***********
/com,            Real Constant Set For Above Contact Is 16 & 15 
*set,tid,16
*set,cid,15
r,tid
r,cid
et,tid,169
et,cid,172
eblock,10,,,6
(15i9)
      463       16       16       16        0       14       15       46
      464       16       16       16        0       13       14       44
      465       16       16       16        0       12       13       42
      466       16       16       16        0       11       12       40
      467       16       16       16        0        8       11       36
      468       16       16       16        0       15       10       38
-1
eblock,10,,,6
(15i9)
      469       15       15       15        0       14       15       46
      470       15       15       15        0       13       14       44
      471       15       15       15        0       12       13       42
      472       15       15       15        0       11       12       40
      473       15       15       15        0        8       11       36
      474       15       15       15        0       15       10       38
-1
eblock,10,,,6
(15i9)
      475       15       16       15        0       56       54      173
      476       15       16       15        0       57       56      177
      477       15       16       15        0       58       57      179
      478       15       16       15        0       59       58      181
      479       15       16       15        0       60       59      183
      480       15       16       15        0       55       60      175
-1
eblock,10,,,6
(15i9)
      481       16       15       16        0       56       54      173
      482       16       15       16        0       57       56      177
      483       16       15       16        0       58       57      179
      484       16       15       16        0       59       58      181
      485       16       15       16        0       60       59      183
      486       16       15       16        0       55       60      175
-1
keyo,cid,8,2               ! auto create asymmetric contact (from Program Controlled setting)
keyo,cid,10,0              ! adjust contact stiffness each NR iteration (from Program Controlled setting)
keyo,cid,12,5              ! bonded always
keyo,cid,18,1              ! small sliding turned on by application
keyo,cid,2,0               ! augmented Lagrange (from Program Controlled setting)
keyo,cid,4,0               ! on Gauss point (from Program Controlled setting)
keyo,cid,9,1               ! ignore initial gaps/penetration
keyo,cid,7,0               ! No Prediction
rmod,tid,3,10.      ! FKN
rmod,tid,5,0.       ! ICONT
rmod,tid,6,-1.16430235193654e-004       ! PINB
rmod,tid,10,0.      ! CNOF
rmod,tid,12,0.      ! FKT
rmod,tid,36,241     ! WB DSID
rmod,cid,3,10.      ! FKN
rmod,cid,5,0.       ! ICONT
rmod,cid,6,-1.16430235193654e-004       ! PINB
rmod,cid,10,0.      ! CNOF
rmod,cid,12,0.      ! FKT
rmod,cid,36,241     ! WB DSID
nsel,all
esel,all
/wb,contact,end            !  done creating contacts
/com,*********** Send Named Selection as Node Component ***********
CMBLOCK,ESTREMO_TOP,NODE,        1
(8i10)
       406
/golist
/wb,load,start             !  starting to send loads
/gst,on,on
fini
*get,_numnode,node,0,count
*get,_numelem,elem,0,count
*get, _MAXELEMNUM, elem, 0, NUM, MAX
*get, _MAXNODENUM, node, 0, NUM, MAX
*get, _MAXELEMTYPE, etyp, 0, NUM, MAX
*get, _MAXREALCONST, rcon, 0, NUM, MAX
/go
/wb,load,end               !  done creating loads
/com,--- Number of total nodes = %_numnode%
/com,--- Number of contact elements = 108
/com,--- Number of spring elements = 0
/com,--- Number of bearing elements = 0
/com,--- Number of solid elements = 378
/com,--- Number of condensed parts = 0
/com,--- Number of total elements = %_numelem%
*get,_wallbsol,active,,time,wall
/solu
antype,harm
hropt,auto
thexpand,off     ! ignore thermal strains
kbc,1
harfrq,50000,210000
nsub,300
outres,erase
outres,all,none
outres,nsol,all
outres,eangl,all
outres,etmp,all
outres,veng,all
outres,strs,all
outres,epel,all
outres,rsol,all
outres,cont,all
! ****** Begin Custom Load Command Snippet ******
/com,
/com,***********  Piezoelectric Body67 ***********
/com,
CMBLOCK,Piezoelectric Body67,NODE,      53
(8i10)
       925       926       927       928       929       930       931       932
       933       934       935       936       937       938       939       940
       941       942       943       944       945       946       947       948
       949       950       951       952       953       954       955       956
       957       958       959       960       961       962       963       964
       965       966       967       968       969       970       971       972
       973       974       975       976       977

/PREP7
CMSEL,S,Piezoelectric Body67
ESLN,S,1
ESEL,R,ENAME,,185
*GET,iNum185,ELEM,0, COUNT
*IF, iNum185,GT,0,THEN
_icurrentElem = 0
*DO,ar30,1,iNum185,1
    _icurrentElem = ELNEXT(_icurrentElem)
    EMODIF,_icurrentElem,ESYS,0
	*GET, _icurrentETyp, ELEM, _icurrentElem, ATTR, TYPE
    ET,_icurrentETyp,226,1001
	*GET, _icurrentMat, ELEM, _icurrentElem, ATTR, MAT
	MPDELE,RSVX, _icurrentMat
	MPDELE,RSVY, _icurrentMat
	MPDELE,RSVZ, _icurrentMat
	TB,PIEZ,_icurrentMat,,,0
	TBDATA,  2, -2.92
	TBDATA,  5, 23.4
	TBDATA,  8, -2.92
	TBDATA, 10, 16.19
	TBDATA, 15, 16.19
  
	TB,DPER,_icurrentMat,,,0
	TBDATA, 1, 2120, 1980, 2120
  
*ENDDO
*ENDIF

CMSEL,S,Piezoelectric Body67
ESLN,S,1
ESEL,R,ENAME,,186
*GET,iNum186,ELEM,0, COUNT
*IF, iNum186,GT,0,THEN
_icurrentElem = 0
*DO,ar30,1,iNum186,1
    _icurrentElem = ELNEXT(_icurrentElem)
    EMODIF,_icurrentElem,ESYS,0
	*GET, _icurrentETyp, ELEM, _icurrentElem, ATTR, TYPE
    ET,_icurrentETyp,226,1001
	*GET, _icurrentMat, ELEM, _icurrentElem, ATTR, MAT
	MPDELE,RSVX, _icurrentMat
	MPDELE,RSVY, _icurrentMat
	MPDELE,RSVZ, _icurrentMat
	TB,PIEZ,_icurrentMat,,,0
	TBDATA,  2, -2.92
	TBDATA,  5, 23.4
	TBDATA,  8, -2.92
	TBDATA, 10, 16.19
	TBDATA, 15, 16.19
  
	TB,DPER,_icurrentMat,,,0
	TBDATA, 1, 2120, 1980, 2120
  
*ENDDO
*ENDIF

CMSEL,S,Piezoelectric Body67
ESLN,S,1
ESEL,R,ENAME,,187
*GET,iNum187,ELEM,0, COUNT
*IF, iNum187,GT,0,THEN
_icurrentElem = 0
*DO,ar30,1,iNum187,1
    _icurrentElem = ELNEXT(_icurrentElem)
    EMODIF,_icurrentElem,ESYS,0
	*GET, _icurrentETyp, ELEM, _icurrentElem, ATTR, TYPE
    ET,_icurrentETyp,227,1001
	*GET, _icurrentMat, ELEM, _icurrentElem, ATTR, MAT
	MPDELE,RSVX, _icurrentMat
	MPDELE,RSVY, _icurrentMat
	MPDELE,RSVZ, _icurrentMat
	TB,PIEZ,_icurrentMat,,,0
	TBDATA,  2, -2.92
	TBDATA,  5, 23.4
	TBDATA,  8, -2.92
	TBDATA, 10, 16.19
	TBDATA, 15, 16.19
  
	TB,DPER,_icurrentMat,,,0
	TBDATA, 1, 2120, 1980, 2120
  
*ENDDO
*ENDIF

CMSEL,S,Piezoelectric Body67
ESLN,S,1
ESEL,R,ENAME,,182
*GET,iNum182,ELEM,0, COUNT
*IF, iNum182,GT,0,THEN
_icurrentElem = 0
*DO,ar30,1,iNum182,1
    _icurrentElem = ELNEXT(_icurrentElem)
    EMODIF,_icurrentElem,ESYS,0
	*GET, _icurrentETyp, ELEM, _icurrentElem, ATTR, TYPE
	*GET, _planebehavior, ETYP, _icurrentETyp, ATTR, KOP3
	*IF, _planebehavior, EQ, 3, THEN
	    _planebehavior = 0
	*ENDIF
    ET,_icurrentETyp,223,1001,,_planebehavior
	*GET, _icurrentMat, ELEM, _icurrentElem, ATTR, MAT
	MPDELE,RSVX, _icurrentMat
	MPDELE,RSVY, _icurrentMat
	MPDELE,RSVZ, _icurrentMat
	TB,PIEZ,_icurrentMat,,,0
	TBDATA,  2, -2.92
	TBDATA,  5, 23.4
	TBDATA,  8, -2.92
	TBDATA, 10, 16.19
  
	TB,DPER,_icurrentMat,,,0
	TBDATA, 1, 2120, 1980, 2120
  
*ENDDO
*ENDIF

CMSEL,S,Piezoelectric Body67
ESLN,S,1
ESEL,R,ENAME,,183
*GET,iNum183,ELEM,0, COUNT
*IF, iNum183,GT,0,THEN
_icurrentElem = 0
*DO,ar30,1,iNum183,1
    _icurrentElem = ELNEXT(_icurrentElem)
    EMODIF,_icurrentElem,ESYS,0
	*GET, _icurrentETyp, ELEM, _icurrentElem, ATTR, TYPE
	*GET, _planebehavior, ETYP, _icurrentETyp, ATTR, KOP3
	*IF, _planebehavior, EQ, 3, THEN
	    _planebehavior = 0
	*ENDIF
    ET,_icurrentETyp,223,1001,,_planebehavior
	*GET, _icurrentMat, ELEM, _icurrentElem, ATTR, MAT
	MPDELE,RSVX, _icurrentMat
	MPDELE,RSVY, _icurrentMat
	MPDELE,RSVZ, _icurrentMat
	TB,PIEZ,_icurrentMat,,,0
	TBDATA,  2, -2.92
	TBDATA,  5, 23.4
	TBDATA,  8, -2.92
	TBDATA, 10, 16.19
  
	TB,DPER,_icurrentMat,,,0
	TBDATA, 1, 2120, 1980, 2120
  
*ENDDO
*ENDIF

EMUNIT, EPZRO, 8.854E-12

/SOLU
ALLSEL,ALL
OUTRES,FGRAD,ALL

/com,
/com,***********  Piezoelectric Body 2100 ***********
/com,
CMBLOCK,Piezoelectric Body100,NODE,      53
(8i10)
         1         2         3         4         5         6         7         8
         9        10        11        12        13        14        15        16
        17        18        19        20        21        22        23        24
        25        26        27        28        29        30        31        32
        33        34        35        36        37        38        39        40
        41        42        43        44        45        46        47        48
        49        50        51        52        53

/PREP7
CMSEL,S,Piezoelectric Body100
ESLN,S,1
ESEL,R,ENAME,,185
*GET,iNum185,ELEM,0, COUNT
*IF, iNum185,GT,0,THEN
_icurrentElem = 0
*DO,ar30,1,iNum185,1
    _icurrentElem = ELNEXT(_icurrentElem)
    EMODIF,_icurrentElem,ESYS,0
	*GET, _icurrentETyp, ELEM, _icurrentElem, ATTR, TYPE
    ET,_icurrentETyp,226,1001
	*GET, _icurrentMat, ELEM, _icurrentElem, ATTR, MAT
	MPDELE,RSVX, _icurrentMat
	MPDELE,RSVY, _icurrentMat
	MPDELE,RSVZ, _icurrentMat
	TB,PIEZ,_icurrentMat,,,0
	TBDATA,  2, -2.92
	TBDATA,  5, 23.4
	TBDATA,  8, -2.92
	TBDATA, 10, 16.19
	TBDATA, 15, 16.19
  
	TB,DPER,_icurrentMat,,,0
	TBDATA, 1, 2120, 1980, 2120
  
*ENDDO
*ENDIF

CMSEL,S,Piezoelectric Body100
ESLN,S,1
ESEL,R,ENAME,,186
*GET,iNum186,ELEM,0, COUNT
*IF, iNum186,GT,0,THEN
_icurrentElem = 0
*DO,ar30,1,iNum186,1
    _icurrentElem = ELNEXT(_icurrentElem)
    EMODIF,_icurrentElem,ESYS,0
	*GET, _icurrentETyp, ELEM, _icurrentElem, ATTR, TYPE
    ET,_icurrentETyp,226,1001
	*GET, _icurrentMat, ELEM, _icurrentElem, ATTR, MAT
	MPDELE,RSVX, _icurrentMat
	MPDELE,RSVY, _icurrentMat
	MPDELE,RSVZ, _icurrentMat
	TB,PIEZ,_icurrentMat,,,0
	TBDATA,  2, -2.92
	TBDATA,  5, 23.4
	TBDATA,  8, -2.92
	TBDATA, 10, 16.19
	TBDATA, 15, 16.19
  
	TB,DPER,_icurrentMat,,,0
	TBDATA, 1, 2120, 1980, 2120
  
*ENDDO
*ENDIF

CMSEL,S,Piezoelectric Body100
ESLN,S,1
ESEL,R,ENAME,,187
*GET,iNum187,ELEM,0, COUNT
*IF, iNum187,GT,0,THEN
_icurrentElem = 0
*DO,ar30,1,iNum187,1
    _icurrentElem = ELNEXT(_icurrentElem)
    EMODIF,_icurrentElem,ESYS,0
	*GET, _icurrentETyp, ELEM, _icurrentElem, ATTR, TYPE
    ET,_icurrentETyp,227,1001
	*GET, _icurrentMat, ELEM, _icurrentElem, ATTR, MAT
	MPDELE,RSVX, _icurrentMat
	MPDELE,RSVY, _icurrentMat
	MPDELE,RSVZ, _icurrentMat
	TB,PIEZ,_icurrentMat,,,0
	TBDATA,  2, -2.92
	TBDATA,  5, 23.4
	TBDATA,  8, -2.92
	TBDATA, 10, 16.19
	TBDATA, 15, 16.19
  
	TB,DPER,_icurrentMat,,,0
	TBDATA, 1, 2120, 1980, 2120
  
*ENDDO
*ENDIF

CMSEL,S,Piezoelectric Body100
ESLN,S,1
ESEL,R,ENAME,,182
*GET,iNum182,ELEM,0, COUNT
*IF, iNum182,GT,0,THEN
_icurrentElem = 0
*DO,ar30,1,iNum182,1
    _icurrentElem = ELNEXT(_icurrentElem)
    EMODIF,_icurrentElem,ESYS,0
	*GET, _icurrentETyp, ELEM, _icurrentElem, ATTR, TYPE
	*GET, _planebehavior, ETYP, _icurrentETyp, ATTR, KOP3
	*IF, _planebehavior, EQ, 3, THEN
	    _planebehavior = 0
	*ENDIF
    ET,_icurrentETyp,223,1001,,_planebehavior
	*GET, _icurrentMat, ELEM, _icurrentElem, ATTR, MAT
	MPDELE,RSVX, _icurrentMat
	MPDELE,RSVY, _icurrentMat
	MPDELE,RSVZ, _icurrentMat
	TB,PIEZ,_icurrentMat,,,0
	TBDATA,  2, -2.92
	TBDATA,  5, 23.4
	TBDATA,  8, -2.92
	TBDATA, 10, 16.19
  
	TB,DPER,_icurrentMat,,,0
	TBDATA, 1, 2120, 1980, 2120
  
*ENDDO
*ENDIF

CMSEL,S,Piezoelectric Body100
ESLN,S,1
ESEL,R,ENAME,,183
*GET,iNum183,ELEM,0, COUNT
*IF, iNum183,GT,0,THEN
_icurrentElem = 0
*DO,ar30,1,iNum183,1
    _icurrentElem = ELNEXT(_icurrentElem)
    EMODIF,_icurrentElem,ESYS,0
	*GET, _icurrentETyp, ELEM, _icurrentElem, ATTR, TYPE
	*GET, _planebehavior, ETYP, _icurrentETyp, ATTR, KOP3
	*IF, _planebehavior, EQ, 3, THEN
	    _planebehavior = 0
	*ENDIF
    ET,_icurrentETyp,223,1001,,_planebehavior
	*GET, _icurrentMat, ELEM, _icurrentElem, ATTR, MAT
	MPDELE,RSVX, _icurrentMat
	MPDELE,RSVY, _icurrentMat
	MPDELE,RSVZ, _icurrentMat
	TB,PIEZ,_icurrentMat,,,0
	TBDATA,  2, -2.92
	TBDATA,  5, 23.4
	TBDATA,  8, -2.92
	TBDATA, 10, 16.19
  
	TB,DPER,_icurrentMat,,,0
	TBDATA, 1, 2120, 1980, 2120
  
*ENDDO
*ENDIF

EMUNIT, EPZRO, 8.854E-12

/SOLU
ALLSEL,ALL
OUTRES,FGRAD,ALL

/com,
/com,***********  Voltage133 ***********
/com,
CMBLOCK,Voltage133,NODE,      13
(8i10)
       615       616       617       618       619       620       755       725
       757       599       759       761       763

CMSEL,S,Voltage133
*GET,_NUMMIN,NODE,,NUM,MIN
_isCP = 0
*GET, _isCP, NODE, _NUMMIN, CPS, VOLT
*IF, _isCP, EQ, 0, THEN
CP,NEXT,VOLT,ALL
*ENDIF
D,_NUMMIN,VOLT,0,0
ALLSEL,ALL

/com,
/com,***********  Voltage 2153 ***********
/com,
CMBLOCK,Voltage153,NODE,      13
(8i10)
        32         1         2         3         4         5         6         7
        22        24        26        28        30

CMSEL,S,Voltage153
*GET,_NUMMIN,NODE,,NUM,MIN
_isCP = 0
*GET, _isCP, NODE, _NUMMIN, CPS, VOLT
*IF, _isCP, EQ, 0, THEN
CP,NEXT,VOLT,ALL
*ENDIF
D,_NUMMIN,VOLT,5,0
ALLSEL,ALL

/com,
/com,***********  Voltage 3173 ***********
/com,
CMBLOCK,Voltage173,NODE,      13
(8i10)
        36        38         8        40        42        10        44        11
        12        13        14        15        46

CMSEL,S,Voltage173
*GET,_NUMMIN,NODE,,NUM,MIN
_isCP = 0
*GET, _isCP, NODE, _NUMMIN, CPS, VOLT
*IF, _isCP, EQ, 0, THEN
CP,NEXT,VOLT,ALL
*ENDIF
D,_NUMMIN,VOLT,0,0
ALLSEL,ALL

! ****** End   Custom Load Command Snippet ******
! *********** WB SOLVE COMMAND ***********
! check interactive state
*get,ANSINTER_,active,,int
*if,ANSINTER_,ne,0,then
/eof
*endif
solve
/com *************** Write FE CONNECTORS ********* 
CEWRITE,file,ce,,INTE
save,file,db
fini
/nopr
*get,_numnode,node,0,count
*get,_numelem,elem,0,count
*get, _MAXELEMNUM, elem, 0, NUM, MAX
*get, _MAXNODENUM, node, 0, NUM, MAX,,,INTERNAL
*get, _MAXELEMTYPE, etyp, 0, NUM, MAX
*get, _MAXREALCONST, rcon, 0, NUM, MAX
*get,_NSOLTHREADS,active,0,ntfs
*get,_NSOLPROCESSES,active,0,npfs
/gopr
*get,_wallasol,active,,time,wall
/post1
xmlo,ENCODING,ISO-8859-1
xmlo,parm
/xml,parm,xml
fini
/gopr
*get,_walldone,active,,time,wall
_preptime=(_wallbsol-_wallstrt)*3600
_solvtime=(_wallasol-_wallbsol)*3600
_posttime=(_walldone-_wallasol)*3600
_totaltim=(_walldone-_wallstrt)*3600
*get,_dlbratio,active,0,solu,dlbr
*get,_combtime,active,0,solu,comb
*get,_ssmode,active,0,solu,ssmm
*get,_ndofs,active,0,solu,ndof
/fclean				!clean distributed files
/com,--- Total number of nodes = %_numnode%
/com,--- Total number of elements = %_numelem%
/com,--- Element load balance ratio = %_dlbratio%
/com,--- Time to combine distributed files = %_combtime%
/com,--- Sparse memory mode = %_ssmode%
/com,--- Number of DOF = %_ndofs%
/wb,file,end               ! done with WB generated input
